18
	Energy:      -3.6893464
O          1.42270       -0.32134        2.41362
C          0.74243       -0.34150        1.19666
C         -0.65453       -0.31771        1.18751
N         -1.36916       -0.29487        2.40834
C         -1.34167       -0.30254       -0.02871
H         -2.42459       -0.25537       -0.04699
C         -0.63782       -0.33141       -1.23298
Cl        -1.50431       -0.31363       -2.75389
C          0.75687       -0.37033       -1.22462
C          1.44597       -0.37134       -0.01083
H          2.53000       -0.39371       -0.02021
H          2.36516       -0.30984        2.29795
H         -2.35149       -0.72313        2.27469
H         -0.83749       -0.86110        3.15888
B          1.31363       -0.39260       -2.17552
H          1.59023        0.46954       -2.61977
H          1.55214       -1.27528       -2.60108
H          5.55214        5.27528        5.60108
